LTspice 24.1.5 for Windows
Circuit: Y:\Projects\Programmable_Electronic_Load\LTSpice\Test Setups\VCCS V2\VCCS V2.net
Start Time: Mon Mar 24 03:04:34 2025
solver = Normal
Maximum thread count: 16
tnom = 27
temp = 27
method = modified trap
Y:\Projects\Programmable_Electronic_Load\LTSpice\Test Setups\VCCS V2\VCCS V2.net(9): Missing value, assuming 0V @ DC.

V1 N003 0
^^^^^^^^^
.step 
Total elapsed time: 0.271 seconds.

Files loaded:
Y:\Projects\Programmable_Electronic_Load\LTSpice\Test Setups\VCCS V2\VCCS V2.net
Y:\Projects\Programmable_Electronic_Load\LTSpice\Test Setups\VCCS V2\irlz44n.spi
Y:\Projects\Programmable_Electronic_Load\LTSpice\Test Setups\VCCS V2\lm358.txt
Y:\Projects\Programmable_Electronic_Load\LTSpice\Test Setups\VCCS V2\OPAx197.LIB

